[TITLE]

[JUNCTIONS]
 1                                   208.5000
 2                                   203.6000
 3                                   198.4000
 4                                   198.5000
 5                                   197.5000
 6                                   201.2000
 7                                   206.5000
 8                                   218.7000
 9                                   199.5000
 10                                  201.5000
 11                                  193.5000
 12                                  196.8000
 13                                  203.5000
 14                                  200.6000
 15                                  195.5000
 16                                  207.4000
 17                                  208.5000

[RESERVOIRS]
 18                                  228.0000                                

[TANKS]

[PIPES]
 2                               1                               2                                   123.0000     200.0000       0.5000       0.0000       
 3                               2                               3                                   183.0000     150.0000       0.0010       0.0000       
 4                               3                               4                                   207.0000     100.0000       0.5000       0.0000       
 5                               4                               5                                   102.0000     150.0000       0.0500       0.0000       
 6                               5                               6                                   201.0000     200.0000       0.0060       0.0000       
 7                               6                               7                                   135.0000     150.0000       0.0010       0.0000       
 8                               7                               8                                   228.0000     150.0000       0.0090       0.0000       
 9                               8                               1                                   168.0000     200.0000       0.0100       0.0000       
 10                              1                               9                                   165.0000     200.0000       0.0010       0.0000       
 11                              9                               10                                  153.0000     150.0000       0.2500       0.0000       
 12                              10                              11                                  168.0000     150.0000       0.5000       0.0000       
 13                              11                              12                                  177.0000     100.0000       0.0100       0.0000       
 14                              12                              3                                   225.0000     200.0000       0.5000       0.0000       
 15                              3                               13                                  255.0000     150.0000       0.5000       0.0000       
 16                              13                              14                                  264.0000     200.0000       0.5000       0.0000       
 17                              14                              15                                  132.0000     150.0000       0.5000       0.0000       
 18                              15                              16                                  321.0000     200.0000       0.5000       0.0000       
 19                              16                              17                                  105.0000     100.0000       0.5000       0.0000       
 20                              17                              5                                   168.0000     200.0000       0.5000       0.0000       
 1                               18                              1                                   324.0000     300.0000       0.5000       0.0000       

[PUMPS]

[VALVES]

[DEMANDS]
 1                                     0.077000                                
 2                                     0.035000                                
 3                                     0.055000                                
 4                                     0.029000                                
 5                                     0.098000                                
 6                                     0.046000                                
 7                                     0.031000                                
 8                                     0.049000                                
 9                                     0.041000                                
 10                                    0.055000                                
 11                                    0.056000                                
 12                                    0.069000                                
 13                                    0.082000                                
 14                                    0.068000                                
 15                                    0.117000                                
 16                                    0.071000                                
 17                                    0.021000                                

[EMITTERS]

[STATUS]

[PATTERNS]

[CURVES]

[CONTROLS]

[RULES]

[QUALITY]

[SOURCES]

[MIXING]

[REACTIONS]
 ORDER  BULK            1.00
 ORDER  WALL            1
 ORDER  TANK            1.00
 GLOBAL BULK            0.000000
 GLOBAL WALL            0.000000

[ENERGY]
 GLOBAL EFFIC        75.0000
 DEMAND CHARGE       0.0000

[TIMES]
 DURATION            0:00:00
 HYDRAULIC TIMESTEP  1:00:00
 QUALITY TIMESTEP    0:05:00
 REPORT TIMESTEP     1:00:00
 REPORT START        0:00:00
 PATTERN TIMESTEP    1:00:00
 PATTERN START       0:00:00
 RULE TIMESTEP       0:06:00
 START CLOCKTIME     0:00:00
 STATISTIC           NONE

[OPTIONS]
 UNITS               LPS
 PRESSURE            METERS
 HEADLOSS            D-W
 UNBALANCED          CONTINUE 10
 QUALITY             NONE
 DEMAND MULTIPLIER   1.0000
 EMITTER EXPONENT    0.5000
 VISCOSITY           1.000000
 DIFFUSIVITY         1.000000
 SPECIFIC GRAVITY    1.000000
 TRIALS              40
 ACCURACY            0.00100000
 TOLERANCE           0.01000000
 CHECKFREQ           10
 MAXCHECK            10
 DAMPLIMIT           0.00000000

[REPORT]
 PAGESIZE            0
 STATUS              NO
 SUMMARY             NO
 ENERGY              NO
 MESSAGES            YES
 NODES               NONE
 LINKS               NONE
 Elevation           NO
 Demand              PRECISION 2
 Head                PRECISION 2
 Pressure            PRECISION 2
 Quality             NO
 Length              NO
 Diameter            NO
 Flow                PRECISION 2
 Velocity            PRECISION 2
 Headloss            PRECISION 2
 Quality             NO
 State               NO
 Setting             NO
 Reaction            NO

[COORDINATES]
 1                                 -2188.890000    7288.890000
 2                                   -44.440000    5955.560000
 3                                  2600.000000    5444.440000
 4                                  1155.560000    3755.560000
 5                                 -1000.000000    2433.330000
 6                                 -3066.670000    3722.220000
 7                                 -4688.890000    4900.000000
 8                                 -3466.670000    6100.000000
 9                                  -666.670000    8511.110000
 10                                  288.890000    9500.000000
 11                                 2411.110000    8733.330000
 12                                 4877.780000    7977.780000
 13                                 5122.220000    4244.440000
 14                                 5200.000000    2855.560000
 15                                 4166.670000    2344.440000
 16                                 3022.220000    2844.440000
 17                                 1066.670000    1200.000000
 18                                -3431.160000    8260.410000

[VERTICES]
 4                                  1133.330000    3711.110000
 15                                 5144.440000    4200.000000

[TAGS]

[LABELS]
;X-Coord           Y-Coord          Label & Anchor Node
 -2854.86         3852.72          "6"                 
 2289.22          8367.13          "11"                 
 4071.50          2038.42          "15"                 
 -1926.36         7299.89          "1"                 
 154.75           6104.59          "2"                 
 2513.34          5688.37          "3"                 
 891.14           3874.07          "4"                 
 -944.50          2764.14          "5"                 
 -4220.92         4909.28          "7"                 
 -3335.11         5987.19          "8"                 
 -485.59          8292.42          "9"                 
 325.51           9199.57          "10"                 
 5074.71          8089.65          "12"                 
 5426.89          4290.29          "13"                 
 5437.57          2710.78          "14"                 
 2950.91          3020.28          "16"                 
 1147.28          885.81           "17"                 

[BACKDROP]
 DIMENSIONS     	0.00            	0.00            	10000.00        	10000.00        
 UNITS          	Meters
 FILE           	
 OFFSET         	0.00            	0.00            

[END]
